examples/Custom_controls_example/DSSfiles/Green_dss/PV_Gen_1_100_close.txt
new PVSystem.3p_pv_1_1 phases=3 bus1=x_4705656e_t_07570_sld_1.1.2.3 kv=0.48 irradiance=1 Pmpp=39.96 pf=1 pctPmpp=86.96 kVA=34.74 conn=delta %cutin=0.1 %cutout=0.1 Vmaxpu=1.2
new PVSystem.3p_pv_1_2 phases=3 bus1=x_2272786e_t_07570_sld_1.1.2.3 kv=0.48 irradiance=1 Pmpp=5.33 pf=1 pctPmpp=86.96 kVA=4.63 conn=delta %cutin=0.1 %cutout=0.1 Vmaxpu=1.2
new PVSystem.3p_pv_1_3 phases=3 bus1=x_4167349e_t_07570_sld_3.1.2.3 kv=0.48 irradiance=1 Pmpp=4.44 pf=1 pctPmpp=86.96 kVA=3.86 conn=delta %cutin=0.1 %cutout=0.1 Vmaxpu=1.2
new PVSystem.3p_pv_1_4 phases=3 bus1=x_4167349e_t_07570_sld_1.1.2.3 kv=0.48 irradiance=1 Pmpp=4.44 pf=1 pctPmpp=86.96 kVA=3.86 conn=delta %cutin=0.1 %cutout=0.1 Vmaxpu=1.2
new PVSystem.3p_pv_1_5 phases=3 bus1=x_4705656e_t_07570_sld_2.1.2.3 kv=0.48 irradiance=1 Pmpp=39.96 pf=1 pctPmpp=86.96 kVA=34.74 conn=delta %cutin=0.1 %cutout=0.1 Vmaxpu=1.2
new PVSystem.3p_pv_1_6 phases=3 bus1=x_4167349e_t_07570_sld_2.1.2.3 kv=0.48 irradiance=1 Pmpp=4.44 pf=1 pctPmpp=86.96 kVA=3.86 conn=delta %cutin=0.1 %cutout=0.1 Vmaxpu=1.2
new PVSystem.3p_pv_1_7 phases=3 bus1=x_2272786e_t_07570_sld_2.1.2.3 kv=0.48 irradiance=1 Pmpp=5.33 pf=1 pctPmpp=86.96 kVA=4.63 conn=delta %cutin=0.1 %cutout=0.1 Vmaxpu=1.2
new PVSystem.3p_pv_1_24 phases=3 bus1=x_4210436e_t_07570_sld_5.1.2.3 kv=0.48 irradiance=1 Pmpp=4.79 pf=1 pctPmpp=86.96 kVA=4.17 conn=delta %cutin=0.1 %cutout=0.1 Vmaxpu=1.2
new PVSystem.3p_pv_1_25 phases=3 bus1=x_4099096e_t_07570_sld_3.1.2.3 kv=0.48 irradiance=1 Pmpp=5.33 pf=1 pctPmpp=86.96 kVA=4.63 conn=delta %cutin=0.1 %cutout=0.1 Vmaxpu=1.2
new PVSystem.3p_pv_1_26 phases=3 bus1=x_4772513e_t_07570_sld_2.1.2.3 kv=0.48 irradiance=1 Pmpp=39.96 pf=1 pctPmpp=86.96 kVA=34.74 conn=delta %cutin=0.1 %cutout=0.1 Vmaxpu=1.2
new PVSystem.3p_pv_1_27 phases=3 bus1=x_4276441e_t_07570_sld_3.1.2.3 kv=0.48 irradiance=1 Pmpp=4.99 pf=1 pctPmpp=86.96 kVA=4.34 conn=delta %cutin=0.1 %cutout=0.1 Vmaxpu=1.2
new PVSystem.3p_pv_1_28 phases=3 bus1=x_1406796e_t_07570_sld_1.1.2.3 kv=0.48 irradiance=1 Pmpp=39.96 pf=1 pctPmpp=86.96 kVA=34.74 conn=delta %cutin=0.1 %cutout=0.1 Vmaxpu=1.2
new PVSystem.3p_pv_1_29 phases=3 bus1=x_4130913e_t_07570_sld_1.1.2.3 kv=0.48 irradiance=1 Pmpp=29.97 pf=1 pctPmpp=86.96 kVA=26.06 conn=delta %cutin=0.1 %cutout=0.1 Vmaxpu=1.2
new PVSystem.3p_pv_1_30 phases=3 bus1=x_744583e_t_07570_sld_1.1.2.3 kv=0.48 irradiance=1 Pmpp=4.44 pf=1 pctPmpp=86.96 kVA=3.86 conn=delta %cutin=0.1 %cutout=0.1 Vmaxpu=1.2
new PVSystem.3p_pv_1_31 phases=3 bus1=x_396528e_t_07570_sld_2.1.2.3 kv=0.48 irradiance=1 Pmpp=5.33 pf=1 pctPmpp=86.96 kVA=4.63 conn=delta %cutin=0.1 %cutout=0.1 Vmaxpu=1.2
new PVSystem.3p_pv_1_32 phases=3 bus1=x_744583e_t_07570_sld_2.1.2.3 kv=0.48 irradiance=1 Pmpp=4.44 pf=1 pctPmpp=86.96 kVA=3.86 conn=delta %cutin=0.1 %cutout=0.1 Vmaxpu=1.2
new PVSystem.3p_pv_1_33 phases=3 bus1=x_4772513e_t_07570_sld_3.1.2.3 kv=0.48 irradiance=1 Pmpp=39.96 pf=1 pctPmpp=86.96 kVA=34.74 conn=delta %cutin=0.1 %cutout=0.1 Vmaxpu=1.2
new PVSystem.3p_pv_1_34 phases=3 bus1=x_4251734e_t_07570_sld_2.1.2.3 kv=0.48 irradiance=1 Pmpp=5.33 pf=1 pctPmpp=86.96 kVA=4.63 conn=delta %cutin=0.1 %cutout=0.1 Vmaxpu=1.2
new PVSystem.3p_pv_1_35 phases=3 bus1=x_4130913e_t_07570_sld_2.1.2.3 kv=0.48 irradiance=1 Pmpp=29.97 pf=1 pctPmpp=86.96 kVA=26.06 conn=delta %cutin=0.1 %cutout=0.1 Vmaxpu=1.2
new PVSystem.3p_pv_1_36 phases=3 bus1=x_4276441e_t_07570_sld_2.1.2.3 kv=0.48 irradiance=1 Pmpp=4.99 pf=1 pctPmpp=86.96 kVA=4.34 conn=delta %cutin=0.1 %cutout=0.1 Vmaxpu=1.2
new PVSystem.3p_pv_1_37 phases=3 bus1=x_4210436e_t_07570_sld_1.1.2.3 kv=0.48 irradiance=1 Pmpp=4.79 pf=1 pctPmpp=86.96 kVA=4.17 conn=delta %cutin=0.1 %cutout=0.1 Vmaxpu=1.2
new PVSystem.3p_pv_1_38 phases=3 bus1=x_744583e_t_07570_sld_3.1.2.3 kv=0.48 irradiance=1 Pmpp=4.44 pf=1 pctPmpp=86.96 kVA=3.86 conn=delta %cutin=0.1 %cutout=0.1 Vmaxpu=1.2
new PVSystem.3p_pv_1_39 phases=3 bus1=x_936059e_t_07570_sld_2.1.2.3 kv=0.48 irradiance=1 Pmpp=5.33 pf=1 pctPmpp=86.96 kVA=4.63 conn=delta %cutin=0.1 %cutout=0.1 Vmaxpu=1.2
new PVSystem.3p_pv_1_40 phases=3 bus1=x_2286962e_t_07570_sld_2.1.2.3 kv=0.48 irradiance=1 Pmpp=4.0 pf=1 pctPmpp=86.96 kVA=3.48 conn=delta %cutin=0.1 %cutout=0.1 Vmaxpu=1.2
new PVSystem.3p_pv_1_41 phases=3 bus1=x_4276441e_t_07570_sld_1.1.2.3 kv=0.48 irradiance=1 Pmpp=4.99 pf=1 pctPmpp=86.96 kVA=4.34 conn=delta %cutin=0.1 %cutout=0.1 Vmaxpu=1.2
new PVSystem.3p_pv_1_42 phases=3 bus1=x_744577e_t_07570_sld_1.1.2.3 kv=0.48 irradiance=1 Pmpp=39.96 pf=1 pctPmpp=86.96 kVA=34.74 conn=delta %cutin=0.1 %cutout=0.1 Vmaxpu=1.2
new PVSystem.3p_pv_1_43 phases=3 bus1=x_936059e_t_07570_sld_1.1.2.3 kv=0.48 irradiance=1 Pmpp=5.33 pf=1 pctPmpp=86.96 kVA=4.63 conn=delta %cutin=0.1 %cutout=0.1 Vmaxpu=1.2
new PVSystem.3p_pv_1_44 phases=3 bus1=x_4130912e_t_07570_sld_2.1.2.3 kv=0.48 irradiance=1 Pmpp=5.33 pf=1 pctPmpp=86.96 kVA=4.63 conn=delta %cutin=0.1 %cutout=0.1 Vmaxpu=1.2
new PVSystem.3p_pv_1_45 phases=3 bus1=x_2286962e_t_07570_sld_1.1.2.3 kv=0.48 irradiance=1 Pmpp=4.0 pf=1 pctPmpp=86.96 kVA=3.48 conn=delta %cutin=0.1 %cutout=0.1 Vmaxpu=1.2
new PVSystem.3p_pv_1_46 phases=3 bus1=x_396528e_t_07570_sld_1.1.2.3 kv=0.48 irradiance=1 Pmpp=5.33 pf=1 pctPmpp=86.96 kVA=4.63 conn=delta %cutin=0.1 %cutout=0.1 Vmaxpu=1.2
new PVSystem.3p_pv_1_47 phases=3 bus1=x_4780491e_t_07570_sld_1.1.2.3 kv=0.48 irradiance=1 Pmpp=39.96 pf=1 pctPmpp=86.96 kVA=34.74 conn=delta %cutin=0.1 %cutout=0.1 Vmaxpu=1.2
new PVSystem.3p_pv_1_48 phases=3 bus1=x_4130912e_t_07570_sld_1.1.2.3 kv=0.48 irradiance=1 Pmpp=5.33 pf=1 pctPmpp=86.96 kVA=4.63 conn=delta %cutin=0.1 %cutout=0.1 Vmaxpu=1.2
new PVSystem.3p_pv_1_49 phases=3 bus1=x_4210436e_t_07570_sld_2.1.2.3 kv=0.48 irradiance=1 Pmpp=4.79 pf=1 pctPmpp=86.96 kVA=4.17 conn=delta %cutin=0.1 %cutout=0.1 Vmaxpu=1.2
new PVSystem.3p_pv_1_50 phases=3 bus1=x_4210436e_t_07570_sld_4.1.2.3 kv=0.48 irradiance=1 Pmpp=4.79 pf=1 pctPmpp=86.96 kVA=4.17 conn=delta %cutin=0.1 %cutout=0.1 Vmaxpu=1.2
new PVSystem.3p_pv_1_51 phases=3 bus1=x_4772513e_t_07570_sld_1.1.2.3 kv=0.48 irradiance=1 Pmpp=39.96 pf=1 pctPmpp=86.96 kVA=34.74 conn=delta %cutin=0.1 %cutout=0.1 Vmaxpu=1.2
new PVSystem.3p_pv_1_52 phases=3 bus1=x_936059e_t_07570_sld_3.1.2.3 kv=0.48 irradiance=1 Pmpp=5.33 pf=1 pctPmpp=86.96 kVA=4.63 conn=delta %cutin=0.1 %cutout=0.1 Vmaxpu=1.2
new PVSystem.3p_pv_1_53 phases=3 bus1=x_4699954e_t_07570_sld_1.1.2.3 kv=0.48 irradiance=1 Pmpp=53.28 pf=1 pctPmpp=86.96 kVA=46.33 conn=delta %cutin=0.1 %cutout=0.1 Vmaxpu=1.2
new PVSystem.3p_pv_1_54 phases=3 bus1=x_1406796e_t_07570_sld_2.1.2.3 kv=0.48 irradiance=1 Pmpp=39.96 pf=1 pctPmpp=86.96 kVA=34.74 conn=delta %cutin=0.1 %cutout=0.1 Vmaxpu=1.2
new PVSystem.3p_pv_1_55 phases=3 bus1=x_4210436e_t_07570_sld_3.1.2.3 kv=0.48 irradiance=1 Pmpp=4.79 pf=1 pctPmpp=86.96 kVA=4.17 conn=delta %cutin=0.1 %cutout=0.1 Vmaxpu=1.2
new PVSystem.3p_pv_1_56 phases=3 bus1=x_4130912e_t_07570_sld_3.1.2.3 kv=0.48 irradiance=1 Pmpp=5.33 pf=1 pctPmpp=86.96 kVA=4.63 conn=delta %cutin=0.1 %cutout=0.1 Vmaxpu=1.2
new PVSystem.3p_pv_1_57 phases=3 bus1=x_4099096e_t_07570_sld_2.1.2.3 kv=0.48 irradiance=1 Pmpp=5.33 pf=1 pctPmpp=86.96 kVA=4.63 conn=delta %cutin=0.1 %cutout=0.1 Vmaxpu=1.2
new PVSystem.3p_pv_1_58 phases=3 bus1=x_4368659e_t_07570_sld_1.1.2.3 kv=0.48 irradiance=1 Pmpp=39.96 pf=1 pctPmpp=86.96 kVA=34.74 conn=delta %cutin=0.1 %cutout=0.1 Vmaxpu=1.2
new PVSystem.3p_pv_1_59 phases=3 bus1=x_4276441e_t_07570_sld_4.1.2.3 kv=0.48 irradiance=1 Pmpp=4.99 pf=1 pctPmpp=86.96 kVA=4.34 conn=delta %cutin=0.1 %cutout=0.1 Vmaxpu=1.2
new PVSystem.3p_pv_1_60 phases=3 bus1=x_4251734e_t_07570_sld_1.1.2.3 kv=0.48 irradiance=1 Pmpp=5.33 pf=1 pctPmpp=86.96 kVA=4.63 conn=delta %cutin=0.1 %cutout=0.1 Vmaxpu=1.2
new PVSystem.3p_pv_1_61 phases=3 bus1=x_4099096e_t_07570_sld_1.1.2.3 kv=0.48 irradiance=1 Pmpp=5.33 pf=1 pctPmpp=86.96 kVA=4.63 conn=delta %cutin=0.1 %cutout=0.1 Vmaxpu=1.2
new PVSystem.3p_pv_1_153 phases=3 bus1=x_4037849e_t_07570_sld_2.1.2.3 kv=0.48 irradiance=1 Pmpp=4.44 pf=1 pctPmpp=86.96 kVA=3.86 conn=delta %cutin=0.1 %cutout=0.1 Vmaxpu=1.2
new PVSystem.3p_pv_1_154 phases=3 bus1=x_p5618240_t_07570_sld_1.1.2.3 kv=0.48 irradiance=1 Pmpp=79.91 pf=1 pctPmpp=86.96 kVA=69.49 conn=delta %cutin=0.1 %cutout=0.1 Vmaxpu=1.2
new PVSystem.3p_pv_1_155 phases=3 bus1=x_2229829e_t_07570_sld_2.1.2.3 kv=0.48 irradiance=1 Pmpp=5.33 pf=1 pctPmpp=86.96 kVA=4.63 conn=delta %cutin=0.1 %cutout=0.1 Vmaxpu=1.2
new PVSystem.3p_pv_1_156 phases=3 bus1=x_p5618240_t_07570_sld_2.1.2.3 kv=0.48 irradiance=1 Pmpp=79.91 pf=1 pctPmpp=86.96 kVA=69.49 conn=delta %cutin=0.1 %cutout=0.1 Vmaxpu=1.2
new PVSystem.3p_pv_1_157 phases=3 bus1=x_p5504304_t_07570_sld_3.1.2.3 kv=0.48 irradiance=1 Pmpp=133.19 pf=1 pctPmpp=86.96 kVA=115.82 conn=delta %cutin=0.1 %cutout=0.1 Vmaxpu=1.2
new PVSystem.a_pv_1_158 phases=1 bus1=x_p5403124_t_07570_sld_1.1 kv=0.24018 irradiance=1 Pmpp=4.54 pf=1 pctPmpp=86.96 kVA=3.95 conn=wye %cutin=0.1 %cutout=0.1 Vmaxpu=1.2
new PVSystem.3p_pv_1_159 phases=3 bus1=x_837633e_t_07570_sld_1.1.2.3 kv=0.48 irradiance=1 Pmpp=4.44 pf=1 pctPmpp=86.96 kVA=3.86 conn=delta %cutin=0.1 %cutout=0.1 Vmaxpu=1.2
new PVSystem.3p_pv_1_160 phases=3 bus1=x_p5393566_t_07570_sld_3.1.2.3 kv=0.48 irradiance=1 Pmpp=4.44 pf=1 pctPmpp=86.96 kVA=3.86 conn=delta %cutin=0.1 %cutout=0.1 Vmaxpu=1.2
new PVSystem.3p_pv_1_161 phases=3 bus1=x_2253647e_t_07570_sld_2.1.2.3 kv=0.48 irradiance=1 Pmpp=5.33 pf=1 pctPmpp=86.96 kVA=4.63 conn=delta %cutin=0.1 %cutout=0.1 Vmaxpu=1.2
new PVSystem.3p_pv_1_162 phases=3 bus1=x_12546t_t_07570_sld_3.1.2.3 kv=0.48 irradiance=1 Pmpp=4.79 pf=1 pctPmpp=86.96 kVA=4.17 conn=delta %cutin=0.1 %cutout=0.1 Vmaxpu=1.2
new PVSystem.3p_pv_1_163 phases=3 bus1=x_4037849e_t_07570_sld_3.1.2.3 kv=0.48 irradiance=1 Pmpp=4.44 pf=1 pctPmpp=86.96 kVA=3.86 conn=delta %cutin=0.1 %cutout=0.1 Vmaxpu=1.2
new PVSystem.3p_pv_1_164 phases=3 bus1=x_2253647e_t_07570_sld_3.1.2.3 kv=0.48 irradiance=1 Pmpp=5.33 pf=1 pctPmpp=86.96 kVA=4.63 conn=delta %cutin=0.1 %cutout=0.1 Vmaxpu=1.2
new PVSystem.3p_pv_1_165 phases=3 bus1=x_p5504304_t_07570_sld_2.1.2.3 kv=0.48 irradiance=1 Pmpp=133.19 pf=1 pctPmpp=86.96 kVA=115.82 conn=delta %cutin=0.1 %cutout=0.1 Vmaxpu=1.2
new PVSystem.3p_pv_1_166 phases=3 bus1=x_p5403117_t_07570_sld_2.1.2.3 kv=0.48 irradiance=1 Pmpp=4.44 pf=1 pctPmpp=86.96 kVA=3.86 conn=delta %cutin=0.1 %cutout=0.1 Vmaxpu=1.2
new PVSystem.3p_pv_1_167 phases=3 bus1=x_2253642e_t_07570_sld_1.1.2.3 kv=0.48 irradiance=1 Pmpp=5.33 pf=1 pctPmpp=86.96 kVA=4.63 conn=delta %cutin=0.1 %cutout=0.1 Vmaxpu=1.2
new PVSystem.3p_pv_1_168 phases=3 bus1=x_2229829e_t_07570_sld_1.1.2.3 kv=0.48 irradiance=1 Pmpp=5.33 pf=1 pctPmpp=86.96 kVA=4.63 conn=delta %cutin=0.1 %cutout=0.1 Vmaxpu=1.2
new PVSystem.a_pv_1_169 phases=1 bus1=x_p5403124_t_07570_sld_2.1 kv=0.24018 irradiance=1 Pmpp=4.54 pf=1 pctPmpp=86.96 kVA=3.95 conn=wye %cutin=0.1 %cutout=0.1 Vmaxpu=1.2
new PVSystem.3p_pv_1_170 phases=3 bus1=x_p5403116_t_07570_sld_1.1.2.3 kv=0.48 irradiance=1 Pmpp=39.96 pf=1 pctPmpp=86.96 kVA=34.74 conn=delta %cutin=0.1 %cutout=0.1 Vmaxpu=1.2
new PVSystem.3p_pv_1_171 phases=3 bus1=x_4368661e_t_07570_sld_1.1.2.3 kv=0.48 irradiance=1 Pmpp=39.96 pf=1 pctPmpp=86.96 kVA=34.74 conn=delta %cutin=0.1 %cutout=0.1 Vmaxpu=1.2
new PVSystem.3p_pv_1_172 phases=3 bus1=x_p5403117_t_07570_sld_3.1.2.3 kv=0.48 irradiance=1 Pmpp=4.44 pf=1 pctPmpp=86.96 kVA=3.86 conn=delta %cutin=0.1 %cutout=0.1 Vmaxpu=1.2
new PVSystem.3p_pv_1_173 phases=3 bus1=x_p5393566_t_07570_sld_2.1.2.3 kv=0.48 irradiance=1 Pmpp=4.44 pf=1 pctPmpp=86.96 kVA=3.86 conn=delta %cutin=0.1 %cutout=0.1 Vmaxpu=1.2
new PVSystem.3p_pv_1_174 phases=3 bus1=x_p5504304_t_07570_sld_1.1.2.3 kv=0.48 irradiance=1 Pmpp=133.19 pf=1 pctPmpp=86.96 kVA=115.82 conn=delta %cutin=0.1 %cutout=0.1 Vmaxpu=1.2
new PVSystem.3p_pv_1_175 phases=3 bus1=x_p5393567_t_07570_sld_2.1.2.3 kv=0.48 irradiance=1 Pmpp=5.33 pf=1 pctPmpp=86.96 kVA=4.63 conn=delta %cutin=0.1 %cutout=0.1 Vmaxpu=1.2
new PVSystem.3p_pv_1_176 phases=3 bus1=x_p5393566_t_07570_sld_1.1.2.3 kv=0.48 irradiance=1 Pmpp=4.44 pf=1 pctPmpp=86.96 kVA=3.86 conn=delta %cutin=0.1 %cutout=0.1 Vmaxpu=1.2
new PVSystem.3p_pv_1_177 phases=3 bus1=x_4037849e_t_07570_sld_1.1.2.3 kv=0.48 irradiance=1 Pmpp=4.44 pf=1 pctPmpp=86.96 kVA=3.86 conn=delta %cutin=0.1 %cutout=0.1 Vmaxpu=1.2
new PVSystem.3p_pv_1_178 phases=3 bus1=x_4700177e_t_07570_sld_1.1.2.3 kv=0.48 irradiance=1 Pmpp=29.97 pf=1 pctPmpp=86.96 kVA=26.06 conn=delta %cutin=0.1 %cutout=0.1 Vmaxpu=1.2
new PVSystem.3p_pv_1_179 phases=3 bus1=x_837633e_t_07570_sld_2.1.2.3 kv=0.48 irradiance=1 Pmpp=4.44 pf=1 pctPmpp=86.96 kVA=3.86 conn=delta %cutin=0.1 %cutout=0.1 Vmaxpu=1.2
new PVSystem.3p_pv_1_180 phases=3 bus1=x_4097786e_t_07570_sld_1.1.2.3 kv=0.48 irradiance=1 Pmpp=39.96 pf=1 pctPmpp=86.96 kVA=34.74 conn=delta %cutin=0.1 %cutout=0.1 Vmaxpu=1.2
new PVSystem.3p_pv_1_181 phases=3 bus1=x_4289382e_t_07570_sld_1.1.2.3 kv=0.48 irradiance=1 Pmpp=4.0 pf=1 pctPmpp=86.96 kVA=3.48 conn=delta %cutin=0.1 %cutout=0.1 Vmaxpu=1.2
new PVSystem.3p_pv_1_182 phases=3 bus1=x_837633e_t_07570_sld_3.1.2.3 kv=0.48 irradiance=1 Pmpp=4.44 pf=1 pctPmpp=86.96 kVA=3.86 conn=delta %cutin=0.1 %cutout=0.1 Vmaxpu=1.2
new PVSystem.3p_pv_1_183 phases=3 bus1=x_2253647e_t_07570_sld_1.1.2.3 kv=0.48 irradiance=1 Pmpp=5.33 pf=1 pctPmpp=86.96 kVA=4.63 conn=delta %cutin=0.1 %cutout=0.1 Vmaxpu=1.2
new PVSystem.3p_pv_1_184 phases=3 bus1=x_1254567e_t_07570_sld_1.1.2.3 kv=0.48 irradiance=1 Pmpp=5.33 pf=1 pctPmpp=86.96 kVA=4.63 conn=delta %cutin=0.1 %cutout=0.1 Vmaxpu=1.2
new PVSystem.3p_pv_1_185 phases=3 bus1=x_4671820e_t_07570_sld_3.1.2.3 kv=0.48 irradiance=1 Pmpp=4.44 pf=1 pctPmpp=86.96 kVA=3.86 conn=delta %cutin=0.1 %cutout=0.1 Vmaxpu=1.2
new PVSystem.3p_pv_1_186 phases=3 bus1=x_p5393567_t_07570_sld_4.1.2.3 kv=0.48 irradiance=1 Pmpp=5.33 pf=1 pctPmpp=86.96 kVA=4.63 conn=delta %cutin=0.1 %cutout=0.1 Vmaxpu=1.2
new PVSystem.3p_pv_1_187 phases=3 bus1=x_4099194e_t_07570_sld_1.1.2.3 kv=0.48 irradiance=1 Pmpp=39.96 pf=1 pctPmpp=86.96 kVA=34.74 conn=delta %cutin=0.1 %cutout=0.1 Vmaxpu=1.2
new PVSystem.3p_pv_1_188 phases=3 bus1=x_4671820e_t_07570_sld_1.1.2.3 kv=0.48 irradiance=1 Pmpp=4.44 pf=1 pctPmpp=86.96 kVA=3.86 conn=delta %cutin=0.1 %cutout=0.1 Vmaxpu=1.2
new PVSystem.3p_pv_1_189 phases=3 bus1=x_b5372741_t_07570_sld_1.1.2.3 kv=0.48 irradiance=1 Pmpp=4.44 pf=1 pctPmpp=86.96 kVA=3.86 conn=delta %cutin=0.1 %cutout=0.1 Vmaxpu=1.2
new PVSystem.3p_pv_1_190 phases=3 bus1=x_p5403116_t_07570_sld_2.1.2.3 kv=0.48 irradiance=1 Pmpp=39.96 pf=1 pctPmpp=86.96 kVA=34.74 conn=delta %cutin=0.1 %cutout=0.1 Vmaxpu=1.2
new PVSystem.3p_pv_1_191 phases=3 bus1=x_4700177e_t_07570_sld_2.1.2.3 kv=0.48 irradiance=1 Pmpp=29.97 pf=1 pctPmpp=86.96 kVA=26.06 conn=delta %cutin=0.1 %cutout=0.1 Vmaxpu=1.2
new PVSystem.3p_pv_1_192 phases=3 bus1=x_1123342e_t_07570_sld_1.1.2.3 kv=0.48 irradiance=1 Pmpp=5.33 pf=1 pctPmpp=86.96 kVA=4.63 conn=delta %cutin=0.1 %cutout=0.1 Vmaxpu=1.2
new PVSystem.3p_pv_1_193 phases=3 bus1=x_12546t_t_07570_sld_4.1.2.3 kv=0.48 irradiance=1 Pmpp=4.79 pf=1 pctPmpp=86.96 kVA=4.17 conn=delta %cutin=0.1 %cutout=0.1 Vmaxpu=1.2
new PVSystem.3p_pv_1_194 phases=3 bus1=x_4671820e_t_07570_sld_2.1.2.3 kv=0.48 irradiance=1 Pmpp=4.44 pf=1 pctPmpp=86.96 kVA=3.86 conn=delta %cutin=0.1 %cutout=0.1 Vmaxpu=1.2
new PVSystem.3p_pv_1_195 phases=3 bus1=x_b5372741_t_07570_sld_3.1.2.3 kv=0.48 irradiance=1 Pmpp=4.44 pf=1 pctPmpp=86.96 kVA=3.86 conn=delta %cutin=0.1 %cutout=0.1 Vmaxpu=1.2
new PVSystem.3p_pv_1_196 phases=3 bus1=x_12546t_t_07570_sld_5.1.2.3 kv=0.48 irradiance=1 Pmpp=4.79 pf=1 pctPmpp=86.96 kVA=4.17 conn=delta %cutin=0.1 %cutout=0.1 Vmaxpu=1.2
new PVSystem.3p_pv_1_197 phases=3 bus1=x_p5393567_t_07570_sld_3.1.2.3 kv=0.48 irradiance=1 Pmpp=5.33 pf=1 pctPmpp=86.96 kVA=4.63 conn=delta %cutin=0.1 %cutout=0.1 Vmaxpu=1.2
new PVSystem.3p_pv_1_198 phases=3 bus1=x_1123341e_t_07570_sld_1.1.2.3 kv=0.48 irradiance=1 Pmpp=39.96 pf=1 pctPmpp=86.96 kVA=34.74 conn=delta %cutin=0.1 %cutout=0.1 Vmaxpu=1.2
new PVSystem.3p_pv_1_199 phases=3 bus1=x_b5372741_t_07570_sld_2.1.2.3 kv=0.48 irradiance=1 Pmpp=4.44 pf=1 pctPmpp=86.96 kVA=3.86 conn=delta %cutin=0.1 %cutout=0.1 Vmaxpu=1.2
new PVSystem.3p_pv_1_200 phases=3 bus1=x_12546t_t_07570_sld_1.1.2.3 kv=0.48 irradiance=1 Pmpp=4.79 pf=1 pctPmpp=86.96 kVA=4.17 conn=delta %cutin=0.1 %cutout=0.1 Vmaxpu=1.2
new PVSystem.3p_pv_1_201 phases=3 bus1=x_4368660e_t_07570_sld_1.1.2.3 kv=0.48 irradiance=1 Pmpp=39.96 pf=1 pctPmpp=86.96 kVA=34.74 conn=delta %cutin=0.1 %cutout=0.1 Vmaxpu=1.2
new PVSystem.3p_pv_1_202 phases=3 bus1=x_p5372742_t_07570_sld_1.1.2.3 kv=0.48 irradiance=1 Pmpp=39.96 pf=1 pctPmpp=86.96 kVA=34.74 conn=delta %cutin=0.1 %cutout=0.1 Vmaxpu=1.2
new PVSystem.3p_pv_1_203 phases=3 bus1=x_4289382e_t_07570_sld_2.1.2.3 kv=0.48 irradiance=1 Pmpp=4.0 pf=1 pctPmpp=86.96 kVA=3.48 conn=delta %cutin=0.1 %cutout=0.1 Vmaxpu=1.2
new PVSystem.3p_pv_1_204 phases=3 bus1=x_12546t_t_07570_sld_2.1.2.3 kv=0.48 irradiance=1 Pmpp=4.79 pf=1 pctPmpp=86.96 kVA=4.17 conn=delta %cutin=0.1 %cutout=0.1 Vmaxpu=1.2
new PVSystem.3p_pv_1_205 phases=3 bus1=x_p5393567_t_07570_sld_5.1.2.3 kv=0.48 irradiance=1 Pmpp=5.33 pf=1 pctPmpp=86.96 kVA=4.63 conn=delta %cutin=0.1 %cutout=0.1 Vmaxpu=1.2
new PVSystem.3p_pv_1_206 phases=3 bus1=x_p5393567_t_07570_sld_1.1.2.3 kv=0.48 irradiance=1 Pmpp=5.33 pf=1 pctPmpp=86.96 kVA=4.63 conn=delta %cutin=0.1 %cutout=0.1 Vmaxpu=1.2
new PVSystem.a_pv_1_207 phases=1 bus1=x_p5403124_t_07570_sld_3.1 kv=0.24018 irradiance=1 Pmpp=4.54 pf=1 pctPmpp=86.96 kVA=3.95 conn=wye %cutin=0.1 %cutout=0.1 Vmaxpu=1.2
new PVSystem.3p_pv_1_208 phases=3 bus1=x_p5403117_t_07570_sld_1.1.2.3 kv=0.48 irradiance=1 Pmpp=4.44 pf=1 pctPmpp=86.96 kVA=3.86 conn=delta %cutin=0.1 %cutout=0.1 Vmaxpu=1.2
new PVSystem.3p_pv_1_209 phases=3 bus1=x_4362829e_t_07570_sld_1.1.2.3 kv=0.48 irradiance=1 Pmpp=39.96 pf=1 pctPmpp=86.96 kVA=34.74 conn=delta %cutin=0.1 %cutout=0.1 Vmaxpu=1.2
new PVSystem.3p_pv_1_340 phases=3 bus1=x_4067585e_t_07570_sld_2.1.2.3 kv=0.48 irradiance=1 Pmpp=4.79 pf=1 pctPmpp=86.96 kVA=4.17 conn=delta %cutin=0.1 %cutout=0.1 Vmaxpu=1.2
new PVSystem.3p_pv_1_341 phases=3 bus1=x_4368160e_t_07570_sld_1.1.2.3 kv=0.48 irradiance=1 Pmpp=4.79 pf=1 pctPmpp=86.96 kVA=4.17 conn=delta %cutin=0.1 %cutout=0.1 Vmaxpu=1.2
new PVSystem.3p_pv_1_342 phases=3 bus1=x_4368663e_t_07570_sld_3.1.2.3 kv=0.48 irradiance=1 Pmpp=4.44 pf=1 pctPmpp=86.96 kVA=3.86 conn=delta %cutin=0.1 %cutout=0.1 Vmaxpu=1.2
new PVSystem.3p_pv_1_343 phases=3 bus1=x_4700044e_t_07570_sld_1.1.2.3 kv=0.48 irradiance=1 Pmpp=39.96 pf=1 pctPmpp=86.96 kVA=34.74 conn=delta %cutin=0.1 %cutout=0.1 Vmaxpu=1.2
new PVSystem.3p_pv_1_344 phases=3 bus1=x_4001837e_t_07570_sld_1.1.2.3 kv=0.48 irradiance=1 Pmpp=4.0 pf=1 pctPmpp=86.96 kVA=3.48 conn=delta %cutin=0.1 %cutout=0.1 Vmaxpu=1.2
new PVSystem.3p_pv_1_345 phases=3 bus1=x_4276446e_t_07570_sld_4.1.2.3 kv=0.48 irradiance=1 Pmpp=5.33 pf=1 pctPmpp=86.96 kVA=4.63 conn=delta %cutin=0.1 %cutout=0.1 Vmaxpu=1.2
new PVSystem.3p_pv_1_346 phases=3 bus1=x_2164704e_t_07570_sld_2.1.2.3 kv=0.48 irradiance=1 Pmpp=4.0 pf=1 pctPmpp=86.96 kVA=3.48 conn=delta %cutin=0.1 %cutout=0.1 Vmaxpu=1.2
new PVSystem.3p_pv_1_347 phases=3 bus1=x_4477501e_t_07570_sld_3.1.2.3 kv=0.48 irradiance=1 Pmpp=4.44 pf=1 pctPmpp=86.96 kVA=3.86 conn=delta %cutin=0.1 %cutout=0.1 Vmaxpu=1.2
new PVSystem.3p_pv_1_348 phases=3 bus1=x_4368667e_t_07570_sld_2.1.2.3 kv=0.48 irradiance=1 Pmpp=33.3 pf=1 pctPmpp=86.96 kVA=28.95 conn=delta %cutin=0.1 %cutout=0.1 Vmaxpu=1.2
new PVSystem.3p_pv_1_349 phases=3 bus1=x_4368670e_t_07570_sld_1.1.2.3 kv=0.48 irradiance=1 Pmpp=4.79 pf=1 pctPmpp=86.96 kVA=4.17 conn=delta %cutin=0.1 %cutout=0.1 Vmaxpu=1.2
new PVSystem.3p_pv_1_350 phases=3 bus1=x_1434873e_t_07570_sld_1.1.2.3 kv=0.48 irradiance=1 Pmpp=2.66 pf=1 pctPmpp=86.96 kVA=2.32 conn=delta %cutin=0.1 %cutout=0.1 Vmaxpu=1.2
new PVSystem.3p_pv_1_351 phases=3 bus1=x_4368670e_t_07570_sld_3.1.2.3 kv=0.48 irradiance=1 Pmpp=4.79 pf=1 pctPmpp=86.96 kVA=4.17 conn=delta %cutin=0.1 %cutout=0.1 Vmaxpu=1.2
new PVSystem.3p_pv_1_352 phases=3 bus1=x_4477501e_t_07570_sld_1.1.2.3 kv=0.48 irradiance=1 Pmpp=4.44 pf=1 pctPmpp=86.96 kVA=3.86 conn=delta %cutin=0.1 %cutout=0.1 Vmaxpu=1.2
new PVSystem.3p_pv_1_353 phases=3 bus1=x_1636824e_t_07570_sld_2.1.2.3 kv=0.48 irradiance=1 Pmpp=4.0 pf=1 pctPmpp=86.96 kVA=3.48 conn=delta %cutin=0.1 %cutout=0.1 Vmaxpu=1.2
new PVSystem.3p_pv_1_354 phases=3 bus1=x_2331624e_t_07570_sld_1.1.2.3 kv=0.48 irradiance=1 Pmpp=39.96 pf=1 pctPmpp=86.96 kVA=34.74 conn=delta %cutin=0.1 %cutout=0.1 Vmaxpu=1.2
new PVSystem.3p_pv_1_355 phases=3 bus1=x_4368668e_t_07570_sld_1.1.2.3 kv=0.48 irradiance=1 Pmpp=4.44 pf=1 pctPmpp=86.96 kVA=3.86 conn=delta %cutin=0.1 %cutout=0.1 Vmaxpu=1.2
new PVSystem.3p_pv_1_356 phases=3 bus1=x_4316552et_t_07570_sld_2.1.2.3 kv=0.48 irradiance=1 Pmpp=29.97 pf=1 pctPmpp=86.96 kVA=26.06 conn=delta %cutin=0.1 %cutout=0.1 Vmaxpu=1.2
new PVSystem.3p_pv_1_357 phases=3 bus1=x_4368160e_t_07570_sld_4.1.2.3 kv=0.48 irradiance=1 Pmpp=4.79 pf=1 pctPmpp=86.96 kVA=4.17 conn=delta %cutin=0.1 %cutout=0.1 Vmaxpu=1.2
new PVSystem.3p_pv_1_358 phases=3 bus1=x_4226560e_t_07570_sld_3.1.2.3 kv=0.48 irradiance=1 Pmpp=4.66 pf=1 pctPmpp=86.96 kVA=4.05 conn=delta %cutin=0.1 %cutout=0.1 Vmaxpu=1.2
new PVSystem.3p_pv_1_359 phases=3 bus1=x_4368160e_t_07570_sld_2.1.2.3 kv=0.48 irradiance=1 Pmpp=4.79 pf=1 pctPmpp=86.96 kVA=4.17 conn=delta %cutin=0.1 %cutout=0.1 Vmaxpu=1.2
new PVSystem.3p_pv_1_360 phases=3 bus1=x_4477501e_t_07570_sld_2.1.2.3 kv=0.48 irradiance=1 Pmpp=4.44 pf=1 pctPmpp=86.96 kVA=3.86 conn=delta %cutin=0.1 %cutout=0.1 Vmaxpu=1.2
new PVSystem.3p_pv_1_361 phases=3 bus1=x_1299702e_t_07570_sld_1.1.2.3 kv=0.48 irradiance=1 Pmpp=4.44 pf=1 pctPmpp=86.96 kVA=3.86 conn=delta %cutin=0.1 %cutout=0.1 Vmaxpu=1.2
new PVSystem.3p_pv_1_362 phases=3 bus1=x_4001837e_t_07570_sld_2.1.2.3 kv=0.48 irradiance=1 Pmpp=4.0 pf=1 pctPmpp=86.96 kVA=3.48 conn=delta %cutin=0.1 %cutout=0.1 Vmaxpu=1.2
new PVSystem.3p_pv_1_363 phases=3 bus1=x_1299702e_t_07570_sld_2.1.2.3 kv=0.48 irradiance=1 Pmpp=4.44 pf=1 pctPmpp=86.96 kVA=3.86 conn=delta %cutin=0.1 %cutout=0.1 Vmaxpu=1.2
new PVSystem.3p_pv_1_364 phases=3 bus1=x_4632241e_t_07570_sld_2.1.2.3 kv=0.48 irradiance=1 Pmpp=4.44 pf=1 pctPmpp=86.96 kVA=3.86 conn=delta %cutin=0.1 %cutout=0.1 Vmaxpu=1.2
new PVSystem.3p_pv_1_365 phases=3 bus1=x_4276446e_t_07570_sld_1.1.2.3 kv=0.48 irradiance=1 Pmpp=5.33 pf=1 pctPmpp=86.96 kVA=4.63 conn=delta %cutin=0.1 %cutout=0.1 Vmaxpu=1.2
new PVSystem.3p_pv_1_366 phases=3 bus1=x_4226560e_t_07570_sld_2.1.2.3 kv=0.48 irradiance=1 Pmpp=4.66 pf=1 pctPmpp=86.96 kVA=4.05 conn=delta %cutin=0.1 %cutout=0.1 Vmaxpu=1.2
new PVSystem.3p_pv_1_367 phases=3 bus1=x_2197942e_t_07570_sld_1.1.2.3 kv=0.48 irradiance=1 Pmpp=5.33 pf=1 pctPmpp=86.96 kVA=4.63 conn=delta %cutin=0.1 %cutout=0.1 Vmaxpu=1.2
new PVSystem.3p_pv_1_368 phases=3 bus1=x_392078e_t_07570_sld_1.1.2.3 kv=0.48 irradiance=1 Pmpp=2.66 pf=1 pctPmpp=86.96 kVA=2.32 conn=delta %cutin=0.1 %cutout=0.1 Vmaxpu=1.2
new PVSystem.3p_pv_1_369 phases=3 bus1=x_4632241e_t_07570_sld_1.1.2.3 kv=0.48 irradiance=1 Pmpp=4.44 pf=1 pctPmpp=86.96 kVA=3.86 conn=delta %cutin=0.1 %cutout=0.1 Vmaxpu=1.2
new PVSystem.3p_pv_1_370 phases=3 bus1=x_4067585e_t_07570_sld_1.1.2.3 kv=0.48 irradiance=1 Pmpp=4.79 pf=1 pctPmpp=86.96 kVA=4.17 conn=delta %cutin=0.1 %cutout=0.1 Vmaxpu=1.2
new PVSystem.3p_pv_1_371 phases=3 bus1=x_4226560e_t_07570_sld_1.1.2.3 kv=0.48 irradiance=1 Pmpp=4.66 pf=1 pctPmpp=86.96 kVA=4.05 conn=delta %cutin=0.1 %cutout=0.1 Vmaxpu=1.2
new PVSystem.3p_pv_1_372 phases=3 bus1=x_4632241e_t_07570_sld_3.1.2.3 kv=0.48 irradiance=1 Pmpp=4.44 pf=1 pctPmpp=86.96 kVA=3.86 conn=delta %cutin=0.1 %cutout=0.1 Vmaxpu=1.2
new PVSystem.3p_pv_1_373 phases=3 bus1=x_4368160e_t_07570_sld_5.1.2.3 kv=0.48 irradiance=1 Pmpp=4.79 pf=1 pctPmpp=86.96 kVA=4.17 conn=delta %cutin=0.1 %cutout=0.1 Vmaxpu=1.2
new PVSystem.3p_pv_1_374 phases=3 bus1=x_1254458e_t_07570_sld_1.1.2.3 kv=0.48 irradiance=1 Pmpp=5.33 pf=1 pctPmpp=86.96 kVA=4.63 conn=delta %cutin=0.1 %cutout=0.1 Vmaxpu=1.2
new PVSystem.3p_pv_1_375 phases=3 bus1=x_4067585e_t_07570_sld_5.1.2.3 kv=0.48 irradiance=1 Pmpp=4.79 pf=1 pctPmpp=86.96 kVA=4.17 conn=delta %cutin=0.1 %cutout=0.1 Vmaxpu=1.2
new PVSystem.3p_pv_1_376 phases=3 bus1=x_4368670e_t_07570_sld_5.1.2.3 kv=0.48 irradiance=1 Pmpp=4.79 pf=1 pctPmpp=86.96 kVA=4.17 conn=delta %cutin=0.1 %cutout=0.1 Vmaxpu=1.2
new PVSystem.3p_pv_1_377 phases=3 bus1=x_p5590213_t_07570_sld_3.1.2.3 kv=0.48 irradiance=1 Pmpp=133.19 pf=1 pctPmpp=86.96 kVA=115.82 conn=delta %cutin=0.1 %cutout=0.1 Vmaxpu=1.2
new PVSystem.3p_pv_1_378 phases=3 bus1=x_4276446e_t_07570_sld_3.1.2.3 kv=0.48 irradiance=1 Pmpp=5.33 pf=1 pctPmpp=86.96 kVA=4.63 conn=delta %cutin=0.1 %cutout=0.1 Vmaxpu=1.2
new PVSystem.3p_pv_1_379 phases=3 bus1=x_4368160e_t_07570_sld_3.1.2.3 kv=0.48 irradiance=1 Pmpp=4.79 pf=1 pctPmpp=86.96 kVA=4.17 conn=delta %cutin=0.1 %cutout=0.1 Vmaxpu=1.2
new PVSystem.3p_pv_1_380 phases=3 bus1=x_4368670e_t_07570_sld_4.1.2.3 kv=0.48 irradiance=1 Pmpp=4.79 pf=1 pctPmpp=86.96 kVA=4.17 conn=delta %cutin=0.1 %cutout=0.1 Vmaxpu=1.2
new PVSystem.3p_pv_1_381 phases=3 bus1=x_4368161e_t_07570_sld_3.1.2.3 kv=0.48 irradiance=1 Pmpp=4.44 pf=1 pctPmpp=86.96 kVA=3.86 conn=delta %cutin=0.1 %cutout=0.1 Vmaxpu=1.2
new PVSystem.3p_pv_1_382 phases=3 bus1=x_4368668e_t_07570_sld_3.1.2.3 kv=0.48 irradiance=1 Pmpp=4.44 pf=1 pctPmpp=86.96 kVA=3.86 conn=delta %cutin=0.1 %cutout=0.1 Vmaxpu=1.2
new PVSystem.3p_pv_1_383 phases=3 bus1=x_4368663e_t_07570_sld_1.1.2.3 kv=0.48 irradiance=1 Pmpp=4.44 pf=1 pctPmpp=86.96 kVA=3.86 conn=delta %cutin=0.1 %cutout=0.1 Vmaxpu=1.2
new PVSystem.3p_pv_1_384 phases=3 bus1=x_4368667e_t_07570_sld_1.1.2.3 kv=0.48 irradiance=1 Pmpp=33.3 pf=1 pctPmpp=86.96 kVA=28.95 conn=delta %cutin=0.1 %cutout=0.1 Vmaxpu=1.2
new PVSystem.a_pv_1_385 phases=1 bus1=x_1898793e_t_07570_sld_1.1 kv=0.24018 irradiance=1 Pmpp=5.45 pf=1 pctPmpp=86.96 kVA=4.74 conn=wye %cutin=0.1 %cutout=0.1 Vmaxpu=1.2
new PVSystem.3p_pv_1_386 phases=3 bus1=x_1636825e_t_07570_sld_2.1.2.3 kv=0.48 irradiance=1 Pmpp=5.33 pf=1 pctPmpp=86.96 kVA=4.63 conn=delta %cutin=0.1 %cutout=0.1 Vmaxpu=1.2
new PVSystem.3p_pv_1_387 phases=3 bus1=x_4226560e_t_07570_sld_4.1.2.3 kv=0.48 irradiance=1 Pmpp=4.66 pf=1 pctPmpp=86.96 kVA=4.05 conn=delta %cutin=0.1 %cutout=0.1 Vmaxpu=1.2
new PVSystem.c_pv_1_388 phases=1 bus1=x_4362842e_t_07570_sld_1.3 kv=0.24018 irradiance=1 Pmpp=6.13 pf=1 pctPmpp=86.96 kVA=5.33 conn=wye %cutin=0.1 %cutout=0.1 Vmaxpu=1.2
new PVSystem.3p_pv_1_389 phases=3 bus1=x_4368670e_t_07570_sld_2.1.2.3 kv=0.48 irradiance=1 Pmpp=4.79 pf=1 pctPmpp=86.96 kVA=4.17 conn=delta %cutin=0.1 %cutout=0.1 Vmaxpu=1.2
new PVSystem.3p_pv_1_390 phases=3 bus1=x_4700044e_t_07570_sld_2.1.2.3 kv=0.48 irradiance=1 Pmpp=39.96 pf=1 pctPmpp=86.96 kVA=34.74 conn=delta %cutin=0.1 %cutout=0.1 Vmaxpu=1.2
new PVSystem.3p_pv_1_391 phases=3 bus1=x_1636825e_t_07570_sld_3.1.2.3 kv=0.48 irradiance=1 Pmpp=5.33 pf=1 pctPmpp=86.96 kVA=4.63 conn=delta %cutin=0.1 %cutout=0.1 Vmaxpu=1.2
new PVSystem.3p_pv_1_392 phases=3 bus1=x_1254458e_t_07570_sld_3.1.2.3 kv=0.48 irradiance=1 Pmpp=5.33 pf=1 pctPmpp=86.96 kVA=4.63 conn=delta %cutin=0.1 %cutout=0.1 Vmaxpu=1.2
new PVSystem.3p_pv_1_393 phases=3 bus1=x_4368668e_t_07570_sld_2.1.2.3 kv=0.48 irradiance=1 Pmpp=4.44 pf=1 pctPmpp=86.96 kVA=3.86 conn=delta %cutin=0.1 %cutout=0.1 Vmaxpu=1.2
new PVSystem.3p_pv_1_394 phases=3 bus1=x_2164704e_t_07570_sld_1.1.2.3 kv=0.48 irradiance=1 Pmpp=4.0 pf=1 pctPmpp=86.96 kVA=3.48 conn=delta %cutin=0.1 %cutout=0.1 Vmaxpu=1.2
new PVSystem.3p_pv_1_395 phases=3 bus1=x_4067585e_t_07570_sld_3.1.2.3 kv=0.48 irradiance=1 Pmpp=4.79 pf=1 pctPmpp=86.96 kVA=4.17 conn=delta %cutin=0.1 %cutout=0.1 Vmaxpu=1.2
new PVSystem.3p_pv_1_396 phases=3 bus1=x_1299702e_t_07570_sld_3.1.2.3 kv=0.48 irradiance=1 Pmpp=4.44 pf=1 pctPmpp=86.96 kVA=3.86 conn=delta %cutin=0.1 %cutout=0.1 Vmaxpu=1.2
new PVSystem.3p_pv_1_397 phases=3 bus1=x_4316552et_t_07570_sld_1.1.2.3 kv=0.48 irradiance=1 Pmpp=29.97 pf=1 pctPmpp=86.96 kVA=26.06 conn=delta %cutin=0.1 %cutout=0.1 Vmaxpu=1.2
new PVSystem.3p_pv_1_398 phases=3 bus1=x_4368663e_t_07570_sld_2.1.2.3 kv=0.48 irradiance=1 Pmpp=4.44 pf=1 pctPmpp=86.96 kVA=3.86 conn=delta %cutin=0.1 %cutout=0.1 Vmaxpu=1.2
new PVSystem.3p_pv_1_399 phases=3 bus1=x_p5590213_t_07570_sld_1.1.2.3 kv=0.48 irradiance=1 Pmpp=133.19 pf=1 pctPmpp=86.96 kVA=115.82 conn=delta %cutin=0.1 %cutout=0.1 Vmaxpu=1.2
new PVSystem.3p_pv_1_400 phases=3 bus1=x_1254458e_t_07570_sld_2.1.2.3 kv=0.48 irradiance=1 Pmpp=5.33 pf=1 pctPmpp=86.96 kVA=4.63 conn=delta %cutin=0.1 %cutout=0.1 Vmaxpu=1.2
new PVSystem.3p_pv_1_401 phases=3 bus1=x_p5590213_t_07570_sld_2.1.2.3 kv=0.48 irradiance=1 Pmpp=133.19 pf=1 pctPmpp=86.96 kVA=115.82 conn=delta %cutin=0.1 %cutout=0.1 Vmaxpu=1.2
new PVSystem.3p_pv_1_402 phases=3 bus1=x_4368161e_t_07570_sld_1.1.2.3 kv=0.48 irradiance=1 Pmpp=4.44 pf=1 pctPmpp=86.96 kVA=3.86 conn=delta %cutin=0.1 %cutout=0.1 Vmaxpu=1.2
new PVSystem.3p_pv_1_403 phases=3 bus1=x_4276446e_t_07570_sld_2.1.2.3 kv=0.48 irradiance=1 Pmpp=5.33 pf=1 pctPmpp=86.96 kVA=4.63 conn=delta %cutin=0.1 %cutout=0.1 Vmaxpu=1.2
new PVSystem.3p_pv_1_404 phases=3 bus1=x_4067585e_t_07570_sld_4.1.2.3 kv=0.48 irradiance=1 Pmpp=4.79 pf=1 pctPmpp=86.96 kVA=4.17 conn=delta %cutin=0.1 %cutout=0.1 Vmaxpu=1.2
new PVSystem.3p_pv_1_405 phases=3 bus1=x_1406609e_t_07570_sld_1.1.2.3 kv=0.48 irradiance=1 Pmpp=5.33 pf=1 pctPmpp=86.96 kVA=4.63 conn=delta %cutin=0.1 %cutout=0.1 Vmaxpu=1.2
new PVSystem.3p_pv_1_406 phases=3 bus1=x_4276446e_t_07570_sld_5.1.2.3 kv=0.48 irradiance=1 Pmpp=5.33 pf=1 pctPmpp=86.96 kVA=4.63 conn=delta %cutin=0.1 %cutout=0.1 Vmaxpu=1.2
new PVSystem.3p_pv_1_407 phases=3 bus1=x_4368161e_t_07570_sld_2.1.2.3 kv=0.48 irradiance=1 Pmpp=4.44 pf=1 pctPmpp=86.96 kVA=3.86 conn=delta %cutin=0.1 %cutout=0.1 Vmaxpu=1.2
new PVSystem.3p_pv_1_408 phases=3 bus1=x_1636825e_t_07570_sld_1.1.2.3 kv=0.48 irradiance=1 Pmpp=5.33 pf=1 pctPmpp=86.96 kVA=4.63 conn=delta %cutin=0.1 %cutout=0.1 Vmaxpu=1.2
new PVSystem.3p_pv_1_409 phases=3 bus1=x_1636824e_t_07570_sld_1.1.2.3 kv=0.48 irradiance=1 Pmpp=4.0 pf=1 pctPmpp=86.96 kVA=3.48 conn=delta %cutin=0.1 %cutout=0.1 Vmaxpu=1.2
new PVSystem.3p_pv_1_410 phases=3 bus1=x_p5590213_t_07570_sld_4.1.2.3 kv=0.48 irradiance=1 Pmpp=133.19 pf=1 pctPmpp=86.96 kVA=115.82 conn=delta %cutin=0.1 %cutout=0.1 Vmaxpu=1.2
new PVSystem.3p_pv_1_483 phases=3 bus1=x_4252648e_t_07570_sld_5.1.2.3 kv=0.48 irradiance=1 Pmpp=4.79 pf=1 pctPmpp=86.96 kVA=4.17 conn=delta %cutin=0.1 %cutout=0.1 Vmaxpu=1.2
new PVSystem.3p_pv_1_484 phases=3 bus1=x_4342612e_t_07570_sld_1.1.2.3 kv=0.48 irradiance=1 Pmpp=4.44 pf=1 pctPmpp=86.96 kVA=3.86 conn=delta %cutin=0.1 %cutout=0.1 Vmaxpu=1.2
new PVSystem.3p_pv_1_485 phases=3 bus1=x_4362819e_t_07570_sld_3.1.2.3 kv=0.48 irradiance=1 Pmpp=4.66 pf=1 pctPmpp=86.96 kVA=4.05 conn=delta %cutin=0.1 %cutout=0.1 Vmaxpu=1.2
new PVSystem.3p_pv_1_486 phases=3 bus1=x_4632242e_t_07570_sld_3.1.2.3 kv=0.48 irradiance=1 Pmpp=4.99 pf=1 pctPmpp=86.96 kVA=4.34 conn=delta %cutin=0.1 %cutout=0.1 Vmaxpu=1.2
new PVSystem.3p_pv_1_487 phases=3 bus1=x_x15001e_t_07570_sld_1.1.2.3 kv=0.48 irradiance=1 Pmpp=4.25 pf=1 pctPmpp=86.96 kVA=3.7 conn=delta %cutin=0.1 %cutout=0.1 Vmaxpu=1.2
new PVSystem.3p_pv_1_488 phases=3 bus1=x_1507174e_t_07570_sld_1.1.2.3 kv=0.48 irradiance=1 Pmpp=5.98 pf=1 pctPmpp=86.96 kVA=5.2 conn=delta %cutin=0.1 %cutout=0.1 Vmaxpu=1.2
new PVSystem.3p_pv_1_489 phases=3 bus1=x_4362819e_t_07570_sld_4.1.2.3 kv=0.48 irradiance=1 Pmpp=2.07 pf=1 pctPmpp=86.96 kVA=1.8 conn=delta %cutin=0.1 %cutout=0.1 Vmaxpu=1.2
new PVSystem.3p_pv_1_490 phases=3 bus1=x_4342612e_t_07570_sld_2.1.2.3 kv=0.48 irradiance=1 Pmpp=4.44 pf=1 pctPmpp=86.96 kVA=3.86 conn=delta %cutin=0.1 %cutout=0.1 Vmaxpu=1.2
new PVSystem.3p_pv_1_491 phases=3 bus1=x_1475348e_t_07570_sld_2.1.2.3 kv=0.48 irradiance=1 Pmpp=4.79 pf=1 pctPmpp=86.96 kVA=4.17 conn=delta %cutin=0.1 %cutout=0.1 Vmaxpu=1.2
new PVSystem.3p_pv_1_492 phases=3 bus1=x_451201e_t_07570_sld_1.1.2.3 kv=0.48 irradiance=1 Pmpp=4.99 pf=1 pctPmpp=86.96 kVA=4.34 conn=delta %cutin=0.1 %cutout=0.1 Vmaxpu=1.2
new PVSystem.c_pv_1_493 phases=1 bus1=x_p5586101_t_07570_sld_2.3 kv=0.24018 irradiance=1 Pmpp=5.1 pf=1 pctPmpp=86.96 kVA=4.44 conn=wye %cutin=0.1 %cutout=0.1 Vmaxpu=1.2
new PVSystem.3p_pv_1_494 phases=3 bus1=x_4699729e_t_07570_sld_1.1.2.3 kv=0.48 irradiance=1 Pmpp=4.79 pf=1 pctPmpp=86.96 kVA=4.17 conn=delta %cutin=0.1 %cutout=0.1 Vmaxpu=1.2
new PVSystem.a_pv_1_495 phases=1 bus1=x_755716e_t_07570_sld_3.1 kv=0.24018 irradiance=1 Pmpp=5.11 pf=1 pctPmpp=86.96 kVA=4.45 conn=wye %cutin=0.1 %cutout=0.1 Vmaxpu=1.2
new PVSystem.3p_pv_1_496 phases=3 bus1=x_4362820e_t_07570_sld_3.1.2.3 kv=0.48 irradiance=1 Pmpp=4.99 pf=1 pctPmpp=86.96 kVA=4.34 conn=delta %cutin=0.1 %cutout=0.1 Vmaxpu=1.2
new PVSystem.3p_pv_1_497 phases=3 bus1=x_1807861e_t_07570_sld_1.1.2.3 kv=0.48 irradiance=1 Pmpp=4.44 pf=1 pctPmpp=86.96 kVA=3.86 conn=delta %cutin=0.1 %cutout=0.1 Vmaxpu=1.2
new PVSystem.3p_pv_1_498 phases=3 bus1=x_4696734e_t_07570_sld_2.1.2.3 kv=0.48 irradiance=1 Pmpp=3.45 pf=1 pctPmpp=86.96 kVA=3.0 conn=delta %cutin=0.1 %cutout=0.1 Vmaxpu=1.2
new PVSystem.3p_pv_1_499 phases=3 bus1=x_4632244e_t_07570_sld_1.1.2.3 kv=0.48 irradiance=1 Pmpp=5.33 pf=1 pctPmpp=86.96 kVA=4.63 conn=delta %cutin=0.1 %cutout=0.1 Vmaxpu=1.2
new PVSystem.c_pv_1_500 phases=1 bus1=x_p5504308_t_07570_sld_1.3 kv=0.24018 irradiance=1 Pmpp=5.1 pf=1 pctPmpp=86.96 kVA=4.44 conn=wye %cutin=0.1 %cutout=0.1 Vmaxpu=1.2
new PVSystem.3p_pv_1_501 phases=3 bus1=x_1475350e_t_07570_sld_1.1.2.3 kv=0.48 irradiance=1 Pmpp=4.44 pf=1 pctPmpp=86.96 kVA=3.86 conn=delta %cutin=0.1 %cutout=0.1 Vmaxpu=1.2
new PVSystem.3p_pv_1_502 phases=3 bus1=x_4214587e_t_07570_sld_3.1.2.3 kv=0.48 irradiance=1 Pmpp=2.3 pf=1 pctPmpp=86.96 kVA=2.0 conn=delta %cutin=0.1 %cutout=0.1 Vmaxpu=1.2
new PVSystem.3p_pv_1_503 phases=3 bus1=x_765919e_t_07570_sld_1.1.2.3 kv=0.48 irradiance=1 Pmpp=1.61 pf=1 pctPmpp=86.96 kVA=1.4 conn=delta %cutin=0.1 %cutout=0.1 Vmaxpu=1.2
new PVSystem.3p_pv_1_504 phases=3 bus1=x_1475348e_t_07570_sld_4.1.2.3 kv=0.48 irradiance=1 Pmpp=4.79 pf=1 pctPmpp=86.96 kVA=4.17 conn=delta %cutin=0.1 %cutout=0.1 Vmaxpu=1.2
new PVSystem.a_pv_1_505 phases=1 bus1=x_p5456297_t_07570_sld_1.1 kv=0.24018 irradiance=1 Pmpp=4.54 pf=1 pctPmpp=86.96 kVA=3.95 conn=wye %cutin=0.1 %cutout=0.1 Vmaxpu=1.2
new PVSystem.a_pv_1_506 phases=1 bus1=x_x10382e_t_07570_sld_2.1 kv=0.24018 irradiance=1 Pmpp=4.09 pf=1 pctPmpp=86.96 kVA=3.56 conn=wye %cutin=0.1 %cutout=0.1 Vmaxpu=1.2
new PVSystem.3p_pv_1_507 phases=3 bus1=x_4002234e_t_07570_sld_1.1.2.3 kv=0.48 irradiance=1 Pmpp=3.33 pf=1 pctPmpp=86.96 kVA=2.9 conn=delta %cutin=0.1 %cutout=0.1 Vmaxpu=1.2
new PVSystem.3p_pv_1_508 phases=3 bus1=x_4180602e_t_07570_sld_1.1.2.3 kv=0.48 irradiance=1 Pmpp=2.07 pf=1 pctPmpp=86.96 kVA=1.8 conn=delta %cutin=0.1 %cutout=0.1 Vmaxpu=1.2
new PVSystem.3p_pv_1_509 phases=3 bus1=x_1475350e_t_07570_sld_3.1.2.3 kv=0.48 irradiance=1 Pmpp=4.44 pf=1 pctPmpp=86.96 kVA=3.86 conn=delta %cutin=0.1 %cutout=0.1 Vmaxpu=1.2
new PVSystem.3p_pv_1_510 phases=3 bus1=x_765919e_t_07570_sld_2.1.2.3 kv=0.48 irradiance=1 Pmpp=4.14 pf=1 pctPmpp=86.96 kVA=3.6 conn=delta %cutin=0.1 %cutout=0.1 Vmaxpu=1.2
new PVSystem.3p_pv_1_511 phases=3 bus1=x_4553227e_t_07570_sld_2.1.2.3 kv=0.48 irradiance=1 Pmpp=5.33 pf=1 pctPmpp=86.96 kVA=4.63 conn=delta %cutin=0.1 %cutout=0.1 Vmaxpu=1.2
new PVSystem.3p_pv_1_512 phases=3 bus1=x_4354747e_t_07570_sld_1.1.2.3 kv=0.48 irradiance=1 Pmpp=16.56 pf=1 pctPmpp=86.96 kVA=14.4 conn=delta %cutin=0.1 %cutout=0.1 Vmaxpu=1.2
new PVSystem.3p_pv_1_513 phases=3 bus1=x_4214587e_t_07570_sld_2.1.2.3 kv=0.48 irradiance=1 Pmpp=4.44 pf=1 pctPmpp=86.96 kVA=3.86 conn=delta %cutin=0.1 %cutout=0.1 Vmaxpu=1.2
new PVSystem.3p_pv_1_514 phases=3 bus1=x_4252648e_t_07570_sld_1.1.2.3 kv=0.48 irradiance=1 Pmpp=4.79 pf=1 pctPmpp=86.96 kVA=4.17 conn=delta %cutin=0.1 %cutout=0.1 Vmaxpu=1.2
new PVSystem.3p_pv_1_515 phases=3 bus1=x_4632242e_t_07570_sld_1.1.2.3 kv=0.48 irradiance=1 Pmpp=3.79 pf=1 pctPmpp=86.96 kVA=3.3 conn=delta %cutin=0.1 %cutout=0.1 Vmaxpu=1.2
new PVSystem.3p_pv_1_516 phases=3 bus1=x_1475348e_t_07570_sld_1.1.2.3 kv=0.48 irradiance=1 Pmpp=4.79 pf=1 pctPmpp=86.96 kVA=4.17 conn=delta %cutin=0.1 %cutout=0.1 Vmaxpu=1.2
new PVSystem.3p_pv_1_517 phases=3 bus1=x_4553227e_t_07570_sld_3.1.2.3 kv=0.48 irradiance=1 Pmpp=5.33 pf=1 pctPmpp=86.96 kVA=4.63 conn=delta %cutin=0.1 %cutout=0.1 Vmaxpu=1.2
new PVSystem.3p_pv_1_518 phases=3 bus1=x_4342612e_t_07570_sld_3.1.2.3 kv=0.48 irradiance=1 Pmpp=4.44 pf=1 pctPmpp=86.96 kVA=3.86 conn=delta %cutin=0.1 %cutout=0.1 Vmaxpu=1.2
new PVSystem.a_pv_1_519 phases=1 bus1=x_p5456297_t_07570_sld_3.1 kv=0.24018 irradiance=1 Pmpp=4.54 pf=1 pctPmpp=86.96 kVA=3.95 conn=wye %cutin=0.1 %cutout=0.1 Vmaxpu=1.2
new PVSystem.3p_pv_1_520 phases=3 bus1=x_4026373e_t_07570_sld_1.1.2.3 kv=0.48 irradiance=1 Pmpp=2.53 pf=1 pctPmpp=86.96 kVA=2.2 conn=delta %cutin=0.1 %cutout=0.1 Vmaxpu=1.2
new PVSystem.3p_pv_1_521 phases=3 bus1=x_4075713e_t_07570_sld_2.1.2.3 kv=0.48 irradiance=1 Pmpp=5.33 pf=1 pctPmpp=86.96 kVA=4.63 conn=delta %cutin=0.1 %cutout=0.1 Vmaxpu=1.2
new PVSystem.3p_pv_1_522 phases=3 bus1=x_4252648e_t_07570_sld_2.1.2.3 kv=0.48 irradiance=1 Pmpp=4.79 pf=1 pctPmpp=86.96 kVA=4.17 conn=delta %cutin=0.1 %cutout=0.1 Vmaxpu=1.2
new PVSystem.3p_pv_1_523 phases=3 bus1=x_4368157e_t_07570_sld_2.1.2.3 kv=0.48 irradiance=1 Pmpp=4.0 pf=1 pctPmpp=86.96 kVA=3.48 conn=delta %cutin=0.1 %cutout=0.1 Vmaxpu=1.2
new PVSystem.3p_pv_1_524 phases=3 bus1=x_4696734e_t_07570_sld_1.1.2.3 kv=0.48 irradiance=1 Pmpp=4.48 pf=1 pctPmpp=86.96 kVA=3.9 conn=delta %cutin=0.1 %cutout=0.1 Vmaxpu=1.2
new PVSystem.3p_pv_1_525 phases=3 bus1=x_1763646e_t_07570_sld_1.1.2.3 kv=0.48 irradiance=1 Pmpp=2.66 pf=1 pctPmpp=86.96 kVA=2.32 conn=delta %cutin=0.1 %cutout=0.1 Vmaxpu=1.2
new PVSystem.3p_pv_1_526 phases=3 bus1=x_4669184e_t_07570_sld_1.1.2.3 kv=0.48 irradiance=1 Pmpp=5.33 pf=1 pctPmpp=86.96 kVA=4.63 conn=delta %cutin=0.1 %cutout=0.1 Vmaxpu=1.2
new PVSystem.3p_pv_1_527 phases=3 bus1=x_1982110e_t_07570_sld_1.1.2.3 kv=0.48 irradiance=1 Pmpp=4.0 pf=1 pctPmpp=86.96 kVA=3.48 conn=delta %cutin=0.1 %cutout=0.1 Vmaxpu=1.2
new PVSystem.3p_pv_1_528 phases=3 bus1=x_4214689e_t_07570_sld_1.1.2.3 kv=0.48 irradiance=1 Pmpp=4.44 pf=1 pctPmpp=86.96 kVA=3.86 conn=delta %cutin=0.1 %cutout=0.1 Vmaxpu=1.2
new PVSystem.c_pv_1_529 phases=1 bus1=x_p5586101_t_07570_sld_1.3 kv=0.24018 irradiance=1 Pmpp=5.1 pf=1 pctPmpp=86.96 kVA=4.44 conn=wye %cutin=0.1 %cutout=0.1 Vmaxpu=1.2
new PVSystem.c_pv_1_530 phases=1 bus1=x_p5504308_t_07570_sld_3.3 kv=0.24018 irradiance=1 Pmpp=5.1 pf=1 pctPmpp=86.96 kVA=4.44 conn=wye %cutin=0.1 %cutout=0.1 Vmaxpu=1.2
new PVSystem.3p_pv_1_531 phases=3 bus1=x_4075713e_t_07570_sld_1.1.2.3 kv=0.48 irradiance=1 Pmpp=5.33 pf=1 pctPmpp=86.96 kVA=4.63 conn=delta %cutin=0.1 %cutout=0.1 Vmaxpu=1.2
new PVSystem.3p_pv_1_532 phases=3 bus1=x_x15001e_t_07570_sld_2.1.2.3 kv=0.48 irradiance=1 Pmpp=3.68 pf=1 pctPmpp=86.96 kVA=3.2 conn=delta %cutin=0.1 %cutout=0.1 Vmaxpu=1.2
new PVSystem.3p_pv_1_533 phases=3 bus1=x_451201e_t_07570_sld_4.1.2.3 kv=0.48 irradiance=1 Pmpp=4.83 pf=1 pctPmpp=86.96 kVA=4.2 conn=delta %cutin=0.1 %cutout=0.1 Vmaxpu=1.2
new PVSystem.3p_pv_1_534 phases=3 bus1=x_p5411969_t_07570_sld_1.1.2.3 kv=0.48 irradiance=1 Pmpp=5.86 pf=1 pctPmpp=86.96 kVA=5.1 conn=delta %cutin=0.1 %cutout=0.1 Vmaxpu=1.2
new PVSystem.3p_pv_1_535 phases=3 bus1=x_4362819e_t_07570_sld_1.1.2.3 kv=0.48 irradiance=1 Pmpp=4.66 pf=1 pctPmpp=86.96 kVA=4.05 conn=delta %cutin=0.1 %cutout=0.1 Vmaxpu=1.2
new PVSystem.3p_pv_1_536 phases=3 bus1=x_4699729e_t_07570_sld_4.1.2.3 kv=0.48 irradiance=1 Pmpp=4.79 pf=1 pctPmpp=86.96 kVA=4.17 conn=delta %cutin=0.1 %cutout=0.1 Vmaxpu=1.2
new PVSystem.3p_pv_1_537 phases=3 bus1=x_1475350e_t_07570_sld_2.1.2.3 kv=0.48 irradiance=1 Pmpp=3.22 pf=1 pctPmpp=86.96 kVA=2.8 conn=delta %cutin=0.1 %cutout=0.1 Vmaxpu=1.2
new PVSystem.3p_pv_1_538 phases=3 bus1=x_2212593e_t_07570_sld_2.1.2.3 kv=0.48 irradiance=1 Pmpp=4.94 pf=1 pctPmpp=86.96 kVA=4.3 conn=delta %cutin=0.1 %cutout=0.1 Vmaxpu=1.2
new PVSystem.3p_pv_1_539 phases=3 bus1=x_766011e_t_07570_sld_1.1.2.3 kv=0.48 irradiance=1 Pmpp=5.33 pf=1 pctPmpp=86.96 kVA=4.63 conn=delta %cutin=0.1 %cutout=0.1 Vmaxpu=1.2
new PVSystem.3p_pv_1_540 phases=3 bus1=x_1763996e_t_07570_sld_1.1.2.3 kv=0.48 irradiance=1 Pmpp=2.07 pf=1 pctPmpp=86.96 kVA=1.8 conn=delta %cutin=0.1 %cutout=0.1 Vmaxpu=1.2
new PVSystem.3p_pv_1_541 phases=3 bus1=x_4362820e_t_07570_sld_4.1.2.3 kv=0.48 irradiance=1 Pmpp=4.99 pf=1 pctPmpp=86.96 kVA=4.34 conn=delta %cutin=0.1 %cutout=0.1 Vmaxpu=1.2
new PVSystem.3p_pv_1_542 phases=3 bus1=x_4252648e_t_07570_sld_4.1.2.3 kv=0.48 irradiance=1 Pmpp=4.79 pf=1 pctPmpp=86.96 kVA=4.17 conn=delta %cutin=0.1 %cutout=0.1 Vmaxpu=1.2
new PVSystem.a_pv_1_543 phases=1 bus1=x_755716e_t_07570_sld_4.1 kv=0.24018 irradiance=1 Pmpp=3.33 pf=1 pctPmpp=86.96 kVA=2.9 conn=wye %cutin=0.1 %cutout=0.1 Vmaxpu=1.2
new PVSystem.3p_pv_1_544 phases=3 bus1=x_4362820e_t_07570_sld_1.1.2.3 kv=0.48 irradiance=1 Pmpp=4.99 pf=1 pctPmpp=86.96 kVA=4.34 conn=delta %cutin=0.1 %cutout=0.1 Vmaxpu=1.2
new PVSystem.3p_pv_1_545 phases=3 bus1=x_451201e_t_07570_sld_3.1.2.3 kv=0.48 irradiance=1 Pmpp=2.64 pf=1 pctPmpp=86.96 kVA=2.3 conn=delta %cutin=0.1 %cutout=0.1 Vmaxpu=1.2
new PVSystem.3p_pv_1_546 phases=3 bus1=x_4553227e_t_07570_sld_5.1.2.3 kv=0.48 irradiance=1 Pmpp=2.18 pf=1 pctPmpp=86.96 kVA=1.9 conn=delta %cutin=0.1 %cutout=0.1 Vmaxpu=1.2
new PVSystem.a_pv_1_547 phases=1 bus1=x_p5456297_t_07570_sld_2.1 kv=0.24018 irradiance=1 Pmpp=4.54 pf=1 pctPmpp=86.96 kVA=3.95 conn=wye %cutin=0.1 %cutout=0.1 Vmaxpu=1.2
new PVSystem.3p_pv_1_548 phases=3 bus1=x_p5411968_t_07570_sld_1.1.2.3 kv=0.48 irradiance=1 Pmpp=11.5 pf=1 pctPmpp=86.96 kVA=10.0 conn=delta %cutin=0.1 %cutout=0.1 Vmaxpu=1.2
new PVSystem.3p_pv_1_549 phases=3 bus1=x_4026373e_t_07570_sld_2.1.2.3 kv=0.48 irradiance=1 Pmpp=5.33 pf=1 pctPmpp=86.96 kVA=4.63 conn=delta %cutin=0.1 %cutout=0.1 Vmaxpu=1.2
new PVSystem.3p_pv_1_550 phases=3 bus1=x_4553228e_t_07570_sld_1.1.2.3 kv=0.48 irradiance=1 Pmpp=4.0 pf=1 pctPmpp=86.96 kVA=3.48 conn=delta %cutin=0.1 %cutout=0.1 Vmaxpu=1.2
new PVSystem.c_pv_1_551 phases=1 bus1=x_p5586101_t_07570_sld_3.3 kv=0.24018 irradiance=1 Pmpp=5.1 pf=1 pctPmpp=86.96 kVA=4.44 conn=wye %cutin=0.1 %cutout=0.1 Vmaxpu=1.2
new PVSystem.3p_pv_1_552 phases=3 bus1=x_4699729e_t_07570_sld_2.1.2.3 kv=0.48 irradiance=1 Pmpp=4.79 pf=1 pctPmpp=86.96 kVA=4.17 conn=delta %cutin=0.1 %cutout=0.1 Vmaxpu=1.2
new PVSystem.3p_pv_1_553 phases=3 bus1=x_4252648e_t_07570_sld_3.1.2.3 kv=0.48 irradiance=1 Pmpp=4.79 pf=1 pctPmpp=86.96 kVA=4.17 conn=delta %cutin=0.1 %cutout=0.1 Vmaxpu=1.2
new PVSystem.3p_pv_1_554 phases=3 bus1=x_1763996e_t_07570_sld_2.1.2.3 kv=0.48 irradiance=1 Pmpp=5.33 pf=1 pctPmpp=86.96 kVA=4.63 conn=delta %cutin=0.1 %cutout=0.1 Vmaxpu=1.2
new PVSystem.3p_pv_1_555 phases=3 bus1=x_1475348e_t_07570_sld_5.1.2.3 kv=0.48 irradiance=1 Pmpp=4.79 pf=1 pctPmpp=86.96 kVA=4.17 conn=delta %cutin=0.1 %cutout=0.1 Vmaxpu=1.2
new PVSystem.3p_pv_1_556 phases=3 bus1=x_4553227e_t_07570_sld_4.1.2.3 kv=0.48 irradiance=1 Pmpp=5.33 pf=1 pctPmpp=86.96 kVA=4.63 conn=delta %cutin=0.1 %cutout=0.1 Vmaxpu=1.2
new PVSystem.3p_pv_1_557 phases=3 bus1=x_4632244e_t_07570_sld_5.1.2.3 kv=0.48 irradiance=1 Pmpp=4.02 pf=1 pctPmpp=86.96 kVA=3.5 conn=delta %cutin=0.1 %cutout=0.1 Vmaxpu=1.2
new PVSystem.3p_pv_1_558 phases=3 bus1=x_4700793e_t_07570_sld_1.1.2.3 kv=0.48 irradiance=1 Pmpp=14.95 pf=1 pctPmpp=86.96 kVA=13.0 conn=delta %cutin=0.1 %cutout=0.1 Vmaxpu=1.2
new PVSystem.3p_pv_1_559 phases=3 bus1=x_4700793e_t_07570_sld_2.1.2.3 kv=0.48 irradiance=1 Pmpp=4.02 pf=1 pctPmpp=86.96 kVA=3.5 conn=delta %cutin=0.1 %cutout=0.1 Vmaxpu=1.2
new PVSystem.3p_pv_1_560 phases=3 bus1=x_451201e_t_07570_sld_2.1.2.3 kv=0.48 irradiance=1 Pmpp=4.99 pf=1 pctPmpp=86.96 kVA=4.34 conn=delta %cutin=0.1 %cutout=0.1 Vmaxpu=1.2
new PVSystem.3p_pv_1_561 phases=3 bus1=x_4214799e_t_07570_sld_1.1.2.3 kv=0.48 irradiance=1 Pmpp=4.48 pf=1 pctPmpp=86.96 kVA=3.9 conn=delta %cutin=0.1 %cutout=0.1 Vmaxpu=1.2
new PVSystem.3p_pv_1_562 phases=3 bus1=x_4362821e_t_07570_sld_3.1.2.3 kv=0.48 irradiance=1 Pmpp=5.33 pf=1 pctPmpp=86.96 kVA=4.63 conn=delta %cutin=0.1 %cutout=0.1 Vmaxpu=1.2
new PVSystem.3p_pv_1_563 phases=3 bus1=x_1807754e_t_07570_sld_2.1.2.3 kv=0.48 irradiance=1 Pmpp=9.31 pf=1 pctPmpp=86.96 kVA=8.1 conn=delta %cutin=0.1 %cutout=0.1 Vmaxpu=1.2
new PVSystem.3p_pv_1_564 phases=3 bus1=x_4632244e_t_07570_sld_4.1.2.3 kv=0.48 irradiance=1 Pmpp=5.33 pf=1 pctPmpp=86.96 kVA=4.63 conn=delta %cutin=0.1 %cutout=0.1 Vmaxpu=1.2
new PVSystem.3p_pv_1_565 phases=3 bus1=x_1807754e_t_07570_sld_1.1.2.3 kv=0.48 irradiance=1 Pmpp=1.84 pf=1 pctPmpp=86.96 kVA=1.6 conn=delta %cutin=0.1 %cutout=0.1 Vmaxpu=1.2
new PVSystem.3p_pv_1_566 phases=3 bus1=x_1807861e_t_07570_sld_3.1.2.3 kv=0.48 irradiance=1 Pmpp=4.44 pf=1 pctPmpp=86.96 kVA=3.86 conn=delta %cutin=0.1 %cutout=0.1 Vmaxpu=1.2
new PVSystem.3p_pv_1_567 phases=3 bus1=x_4632242e_t_07570_sld_2.1.2.3 kv=0.48 irradiance=1 Pmpp=4.99 pf=1 pctPmpp=86.96 kVA=4.34 conn=delta %cutin=0.1 %cutout=0.1 Vmaxpu=1.2
new PVSystem.3p_pv_1_568 phases=3 bus1=x_1982290e_t_07570_sld_1.1.2.3 kv=0.48 irradiance=1 Pmpp=5.33 pf=1 pctPmpp=86.96 kVA=4.63 conn=delta %cutin=0.1 %cutout=0.1 Vmaxpu=1.2
new PVSystem.3p_pv_1_569 phases=3 bus1=x_4362820e_t_07570_sld_2.1.2.3 kv=0.48 irradiance=1 Pmpp=4.99 pf=1 pctPmpp=86.96 kVA=4.34 conn=delta %cutin=0.1 %cutout=0.1 Vmaxpu=1.2
new PVSystem.3p_pv_1_570 phases=3 bus1=x_4214689e_t_07570_sld_3.1.2.3 kv=0.48 irradiance=1 Pmpp=4.44 pf=1 pctPmpp=86.96 kVA=3.86 conn=delta %cutin=0.1 %cutout=0.1 Vmaxpu=1.2
new PVSystem.3p_pv_1_571 phases=3 bus1=x_4553227e_t_07570_sld_1.1.2.3 kv=0.48 irradiance=1 Pmpp=3.45 pf=1 pctPmpp=86.96 kVA=3.0 conn=delta %cutin=0.1 %cutout=0.1 Vmaxpu=1.2
new PVSystem.3p_pv_1_572 phases=3 bus1=x_4699729e_t_07570_sld_3.1.2.3 kv=0.48 irradiance=1 Pmpp=4.79 pf=1 pctPmpp=86.96 kVA=4.17 conn=delta %cutin=0.1 %cutout=0.1 Vmaxpu=1.2
new PVSystem.3p_pv_1_573 phases=3 bus1=x_4632242e_t_07570_sld_4.1.2.3 kv=0.48 irradiance=1 Pmpp=4.99 pf=1 pctPmpp=86.96 kVA=4.34 conn=delta %cutin=0.1 %cutout=0.1 Vmaxpu=1.2
new PVSystem.3p_pv_1_574 phases=3 bus1=x_2212593e_t_07570_sld_1.1.2.3 kv=0.48 irradiance=1 Pmpp=8.05 pf=1 pctPmpp=86.96 kVA=7.0 conn=delta %cutin=0.1 %cutout=0.1 Vmaxpu=1.2
new PVSystem.3p_pv_1_575 phases=3 bus1=x_4553228e_t_07570_sld_2.1.2.3 kv=0.48 irradiance=1 Pmpp=4.0 pf=1 pctPmpp=86.96 kVA=3.48 conn=delta %cutin=0.1 %cutout=0.1 Vmaxpu=1.2
new PVSystem.a_pv_1_576 phases=1 bus1=x_755716e_t_07570_sld_1.1 kv=0.24018 irradiance=1 Pmpp=5.11 pf=1 pctPmpp=86.96 kVA=4.45 conn=wye %cutin=0.1 %cutout=0.1 Vmaxpu=1.2
new PVSystem.3p_pv_1_577 phases=3 bus1=x_4632239e_t_07570_sld_1.1.2.3 kv=0.48 irradiance=1 Pmpp=5.33 pf=1 pctPmpp=86.96 kVA=4.63 conn=delta %cutin=0.1 %cutout=0.1 Vmaxpu=1.2
new PVSystem.3p_pv_1_578 phases=3 bus1=x_2281906ed_t_07570_sld_2.1.2.3 kv=0.48 irradiance=1 Pmpp=5.33 pf=1 pctPmpp=86.96 kVA=4.63 conn=delta %cutin=0.1 %cutout=0.1 Vmaxpu=1.2
new PVSystem.3p_pv_1_579 phases=3 bus1=x_4362821e_t_07570_sld_1.1.2.3 kv=0.48 irradiance=1 Pmpp=5.33 pf=1 pctPmpp=86.96 kVA=4.63 conn=delta %cutin=0.1 %cutout=0.1 Vmaxpu=1.2
new PVSystem.c_pv_1_580 phases=1 bus1=x_p5504308_t_07570_sld_2.3 kv=0.24018 irradiance=1 Pmpp=5.1 pf=1 pctPmpp=86.96 kVA=4.44 conn=wye %cutin=0.1 %cutout=0.1 Vmaxpu=1.2
new PVSystem.3p_pv_1_581 phases=3 bus1=x_4180602e_t_07570_sld_2.1.2.3 kv=0.48 irradiance=1 Pmpp=5.33 pf=1 pctPmpp=86.96 kVA=4.63 conn=delta %cutin=0.1 %cutout=0.1 Vmaxpu=1.2
new PVSystem.3p_pv_1_582 phases=3 bus1=x_1475348e_t_07570_sld_3.1.2.3 kv=0.48 irradiance=1 Pmpp=4.79 pf=1 pctPmpp=86.96 kVA=4.17 conn=delta %cutin=0.1 %cutout=0.1 Vmaxpu=1.2
new PVSystem.3p_pv_1_583 phases=3 bus1=x_4368157e_t_07570_sld_1.1.2.3 kv=0.48 irradiance=1 Pmpp=4.0 pf=1 pctPmpp=86.96 kVA=3.48 conn=delta %cutin=0.1 %cutout=0.1 Vmaxpu=1.2
new PVSystem.3p_pv_1_584 phases=3 bus1=x_2281906ed_t_07570_sld_1.1.2.3 kv=0.48 irradiance=1 Pmpp=5.33 pf=1 pctPmpp=86.96 kVA=4.63 conn=delta %cutin=0.1 %cutout=0.1 Vmaxpu=1.2
new PVSystem.3p_pv_1_585 phases=3 bus1=x_4067277e_t_07570_sld_1.1.2.3 kv=0.48 irradiance=1 Pmpp=14.03 pf=1 pctPmpp=86.96 kVA=12.2 conn=delta %cutin=0.1 %cutout=0.1 Vmaxpu=1.2
new PVSystem.3p_pv_1_586 phases=3 bus1=x_4699729e_t_07570_sld_5.1.2.3 kv=0.48 irradiance=1 Pmpp=3.45 pf=1 pctPmpp=86.96 kVA=3.0 conn=delta %cutin=0.1 %cutout=0.1 Vmaxpu=1.2
new PVSystem.3p_pv_1_587 phases=3 bus1=x_4362821e_t_07570_sld_2.1.2.3 kv=0.48 irradiance=1 Pmpp=2.76 pf=1 pctPmpp=86.96 kVA=2.4 conn=delta %cutin=0.1 %cutout=0.1 Vmaxpu=1.2
new PVSystem.3p_pv_1_588 phases=3 bus1=x_1807861e_t_07570_sld_2.1.2.3 kv=0.48 irradiance=1 Pmpp=3.56 pf=1 pctPmpp=86.96 kVA=3.1 conn=delta %cutin=0.1 %cutout=0.1 Vmaxpu=1.2
new PVSystem.a_pv_1_589 phases=1 bus1=x_755716e_t_07570_sld_2.1 kv=0.24018 irradiance=1 Pmpp=5.11 pf=1 pctPmpp=86.96 kVA=4.45 conn=wye %cutin=0.1 %cutout=0.1 Vmaxpu=1.2
new PVSystem.3p_pv_1_590 phases=3 bus1=x_4553230e_t_07570_sld_1.1.2.3 kv=0.48 irradiance=1 Pmpp=5.33 pf=1 pctPmpp=86.96 kVA=4.63 conn=delta %cutin=0.1 %cutout=0.1 Vmaxpu=1.2
new PVSystem.a_pv_1_591 phases=1 bus1=x_x10382e_t_07570_sld_1.1 kv=0.24018 irradiance=1 Pmpp=2.53 pf=1 pctPmpp=86.96 kVA=2.2 conn=wye %cutin=0.1 %cutout=0.1 Vmaxpu=1.2
new PVSystem.3p_pv_1_592 phases=3 bus1=x_4214587e_t_07570_sld_1.1.2.3 kv=0.48 irradiance=1 Pmpp=4.37 pf=1 pctPmpp=86.96 kVA=3.8 conn=delta %cutin=0.1 %cutout=0.1 Vmaxpu=1.2
new PVSystem.3p_pv_1_593 phases=3 bus1=x_4214689e_t_07570_sld_2.1.2.3 kv=0.48 irradiance=1 Pmpp=4.14 pf=1 pctPmpp=86.96 kVA=3.6 conn=delta %cutin=0.1 %cutout=0.1 Vmaxpu=1.2
new PVSystem.3p_pv_1_594 phases=3 bus1=x_4632244e_t_07570_sld_2.1.2.3 kv=0.48 irradiance=1 Pmpp=5.33 pf=1 pctPmpp=86.96 kVA=4.63 conn=delta %cutin=0.1 %cutout=0.1 Vmaxpu=1.2
new PVSystem.3p_pv_1_595 phases=3 bus1=x_p5411969_t_07570_sld_2.1.2.3 kv=0.48 irradiance=1 Pmpp=15.06 pf=1 pctPmpp=86.96 kVA=13.1 conn=delta %cutin=0.1 %cutout=0.1 Vmaxpu=1.2
new PVSystem.3p_pv_1_596 phases=3 bus1=x_2281906ed_t_07570_sld_3.1.2.3 kv=0.48 irradiance=1 Pmpp=5.33 pf=1 pctPmpp=86.96 kVA=4.63 conn=delta %cutin=0.1 %cutout=0.1 Vmaxpu=1.2
new PVSystem.3p_pv_1_597 phases=3 bus1=x_x15001e_t_07570_sld_3.1.2.3 kv=0.48 irradiance=1 Pmpp=4.44 pf=1 pctPmpp=86.96 kVA=3.86 conn=delta %cutin=0.1 %cutout=0.1 Vmaxpu=1.2
new PVSystem.3p_pv_1_598 phases=3 bus1=x_4362819e_t_07570_sld_2.1.2.3 kv=0.48 irradiance=1 Pmpp=4.66 pf=1 pctPmpp=86.96 kVA=4.05 conn=delta %cutin=0.1 %cutout=0.1 Vmaxpu=1.2
new PVSystem.3p_pv_1_599 phases=3 bus1=x_1982110e_t_07570_sld_2.1.2.3 kv=0.48 irradiance=1 Pmpp=4.0 pf=1 pctPmpp=86.96 kVA=3.48 conn=delta %cutin=0.1 %cutout=0.1 Vmaxpu=1.2
new PVSystem.3p_pv_1_600 phases=3 bus1=x_4368171e_t_07570_sld_1.1.2.3 kv=0.48 irradiance=1 Pmpp=2.42 pf=1 pctPmpp=86.96 kVA=2.1 conn=delta %cutin=0.1 %cutout=0.1 Vmaxpu=1.2
new PVSystem.3p_pv_1_601 phases=3 bus1=x_4632244e_t_07570_sld_3.1.2.3 kv=0.48 irradiance=1 Pmpp=3.79 pf=1 pctPmpp=86.96 kVA=3.3 conn=delta %cutin=0.1 %cutout=0.1 Vmaxpu=1.2
new PVSystem.3p_pv_1_602 phases=3 bus1=x_4669184e_t_07570_sld_2.1.2.3 kv=0.48 irradiance=1 Pmpp=5.33 pf=1 pctPmpp=86.96 kVA=4.63 conn=delta %cutin=0.1 %cutout=0.1 Vmaxpu=1.2
new PVSystem.3p_pv_1_603 phases=3 bus1=x_4296072e_t_07570_sld_1.1.2.3 kv=0.48 irradiance=1 Pmpp=4.83 pf=1 pctPmpp=86.96 kVA=4.2 conn=delta %cutin=0.1 %cutout=0.1 Vmaxpu=1.2
new PVSystem.3p_pv_1_604 phases=3 bus1=x_4362834e_t_07570_sld_1.1.2.3 kv=0.48 irradiance=1 Pmpp=5.4 pf=1 pctPmpp=86.96 kVA=4.7 conn=delta %cutin=0.1 %cutout=0.1 Vmaxpu=1.2